data_3D

_computing_structure_solution     'FOX http://objcryst.sourceforge.net'

_symmetry_space_group_name_H-M    'F m -3 m'
_symmetry_space_group_name_Hall   '-F 4 2 3'

_cell_length_a     4.16360
_cell_length_b     4.16360
_cell_length_c     4.16360
_cell_angle_alpha  90.000
_cell_angle_beta   90.000
_cell_angle_gamma  90.000
_cell_volume        72.18
loop_
    _atom_site_label
    _atom_site_type_symbol
    _atom_site_fract_x
    _atom_site_fract_y
    _atom_site_fract_z
    _atom_site_U_iso_or_equiv
    _atom_site_occupancy
    _atom_site_adp_type
    O          O         0.500000  0.500000  0.500000  0.026192 1.0000 Uiso
    Ni         Ni        0.000000  0.000000  0.000000  0.000191 1.0000 Uiso

#  Dynamical occupancy corrections found by ObjCryst++:
#  values below 1. (100%) indicate a correction,
#  which means either that the atom is on a special position,
#  or that it is overlapping with another identical atom.
#   O                : 0.0208
#   Ni               : 0.0208
#
