data_Ni1.001_Al2.001_O4

_computing_structure_solution     'FOX http://objcryst.sourceforge.net'

_symmetry_space_group_name_H-M    'F d -3 m:2'
_symmetry_space_group_name_Hall   '-F 4vw 2vw 3'

_cell_length_a     8.16619
_cell_length_b     8.16619
_cell_length_c     8.16619
_cell_angle_alpha  90.000
_cell_angle_beta   90.000
_cell_angle_gamma  90.000
_cell_volume       544.58
loop_
    _atom_site_label
    _atom_site_type_symbol
    _atom_site_fract_x
    _atom_site_fract_y
    _atom_site_fract_z
    _atom_site_U_iso_or_equiv
    _atom_site_occupancy
    _atom_site_adp_type
    Ni1        Ni        0.125000  0.125000  0.125000  0.045021 0.1410 Uiso
    Al1        Al        0.125000  0.125000  0.125000  0.018997 0.8590 Uiso
    Al2        Al        0.500000  0.500000  0.500000  0.010650 0.5710 Uiso
    Ni2        Ni        0.500000  0.500000  0.500000  0.129451 0.4300 Uiso
    O          O         0.255200  0.255200  0.255200  0.007381 1.0000 Uiso

#  Dynamical occupancy corrections found by ObjCryst++:
#  values below 1. (100%) indicate a correction,
#  which means either that the atom is on a special position,
#  or that it is overlapping with another identical atom.
#   Ni1              : 0.0417
#   Al1              : 0.0417
#   Al2              : 0.0833
#   Ni2              : 0.0833
#   O                : 0.1667
#
